6 
6.000000 
C       -0.679933   -0.014028   -0.037405 
C        0.691867    0.005834    0.012949 
H       -1.275165    0.937603    0.148525 
H        1.312235    0.971733   -0.002704 
H       -1.276589   -0.906100    0.158305 
H        1.097442   -0.905657   -0.012950 
6 
8.000000 
C       -0.679809   -0.014331   -0.037558 
C        0.691481    0.006316    0.013122 
H       -1.272881    0.938481    0.149784 
H        1.313366    0.972128   -0.003948 
H       -1.277206   -0.906893    0.158098 
H        1.097727   -0.908255   -0.012981 
