6 
4.000000 
C       -0.680080   -0.013724   -0.037260 
C        0.692266    0.005367    0.012780 
H       -1.277406    0.936716    0.147257 
H        1.311068    0.971278   -0.001432 
H       -1.275955   -0.905314    0.158508 
H        1.097205   -0.903174   -0.012858 
6 
6.000000 
C       -0.679932   -0.014029   -0.037408 
C        0.691866    0.005834    0.012953 
H       -1.275177    0.937609    0.148477 
H        1.312231    0.971724   -0.002700 
H       -1.276603   -0.906104    0.158305 
H        1.097444   -0.905649   -0.012903 
6 
8.000000 
C       -0.679805   -0.014334   -0.037563 
C        0.691481    0.006317    0.013127 
H       -1.272893    0.938481    0.149715 
H        1.313364    0.972123   -0.003946 
H       -1.277221   -0.906891    0.158104 
H        1.097730   -0.908250   -0.012914 
