6 
0.000000 
C       -0.683882    0.005930    0.036960 
C        0.671317   -0.025385   -0.012298 
H       -1.181255    0.981142   -0.144634 
H        1.204558    1.027641   -0.002189 
H       -1.134886   -0.926875   -0.159550 
H        1.261191   -0.850257    0.012727 
6 
10.000000 
C       -0.683065    0.008054    0.037688 
C        0.671711   -0.026482   -0.013200 
H       -1.195915    0.981144   -0.149781 
H        1.200646    1.027172    0.004104 
H       -1.140133   -0.934770   -0.158644 
H        1.270602   -0.854129    0.012745 
6 
20.000000 
C       -0.682444    0.010229    0.038415 
C        0.672372   -0.027343   -0.014078 
H       -1.210716    0.980497   -0.154613 
H        1.196092    1.025246    0.010005 
H       -1.146081   -0.942833   -0.158115 
H        1.280635   -0.859147    0.012941 
