6

C             -0.6630107467   0.0000000000   3.0000000000
C              0.6630107467   0.0000000000   3.0000000000
H             -1.2355767823   0.9232350587   3.0000000000
H              1.2355767823   0.9232350587   3.0000000000
H             -1.2355767823  -0.9232350587   3.0000000000
H              1.2355767823  -0.9232350587   3.0000000000
