9 
0.000000 
O        1.213177    0.825391   -0.056105 
O       -1.188011    0.849681   -0.054565 
C        0.037434   -1.139270    0.114267 
C        1.128931   -0.485883    0.028010 
C       -1.244221   -0.388942    0.029857 
H        0.373931    1.204682    0.003698 
H       -0.005764   -2.109293    0.062565 
H        2.266851   -0.851894   -0.172796 
H       -2.107409   -0.846621   -0.186634 
9 
1.000000 
O        1.212997    0.825370   -0.056103 
O       -1.188008    0.849731   -0.054566 
C        0.037593   -1.139340    0.114370 
C        1.128825   -0.485841    0.028080 
C       -1.243975   -0.388836    0.029787 
H        0.374112    1.205513    0.003097 
H       -0.006221   -2.109591    0.061543 
H        2.267554   -0.853164   -0.172990 
H       -2.108585   -0.847276   -0.186058 
9 
2.000000 
O        1.212819    0.825349   -0.056100 
O       -1.188005    0.849784   -0.054565 
C        0.037751   -1.139407    0.114471 
C        1.128723   -0.485800    0.028149 
C       -1.243728   -0.388731    0.029716 
H        0.374269    1.206354    0.002497 
H       -0.006681   -2.109926    0.060522 
H        2.268234   -0.854433   -0.173175 
H       -2.109784   -0.847946   -0.185473 
9 
3.000000 
O        1.212643    0.825328   -0.056098 
O       -1.188001    0.849840   -0.054564 
C        0.037907   -1.139474    0.114570 
C        1.128625   -0.485758    0.028218 
C       -1.243481   -0.388630    0.029645 
H        0.374402    1.207205    0.001897 
H       -0.007144   -2.110298    0.059504 
H        2.268891   -0.855702   -0.173352 
H       -2.111009   -0.848632   -0.184879 
9 
4.000000 
O        1.212469    0.825307   -0.056096 
O       -1.187997    0.849898   -0.054563 
C        0.038059   -1.139538    0.114669 
C        1.128532   -0.485715    0.028285 
C       -1.243232   -0.388530    0.029574 
H        0.374508    1.208066    0.001296 
H       -0.007610   -2.110706    0.058488 
H        2.269524   -0.856970   -0.173519 
H       -2.112257   -0.849332   -0.184276 
9 
5.000000 
O        1.212298    0.825286   -0.056094 
O       -1.187992    0.849958   -0.054563 
C        0.038208   -1.139601    0.114767 
C        1.128443   -0.485672    0.028352 
C       -1.242980   -0.388433    0.029504 
H        0.374586    1.208938    0.000694 
H       -0.008077   -2.111151    0.057475 
H        2.270133   -0.858237   -0.173678 
H       -2.113530   -0.850047   -0.183666 
9 
6.000000 
O        1.212128    0.825265   -0.056091 
O       -1.187987    0.850021   -0.054563 
C        0.038353   -1.139662    0.114864 
C        1.128358   -0.485628    0.028418 
C       -1.242726   -0.388339    0.029436 
H        0.374635    1.209820    0.000090 
H       -0.008546   -2.111631    0.056463 
H        2.270719   -0.859502   -0.173829 
H       -2.114828   -0.850775   -0.183048 
9 
7.000000 
O        1.211960    0.825244   -0.056088 
O       -1.187983    0.850087   -0.054566 
C        0.038495   -1.139722    0.114961 
C        1.128277   -0.485584    0.028483 
C       -1.242468   -0.388247    0.029368 
H        0.374655    1.210713   -0.000515 
H       -0.009015   -2.112147    0.055454 
H        2.271281   -0.860766   -0.173971 
H       -2.116149   -0.851515   -0.182425 
9 
8.000000 
O        1.211795    0.825223   -0.056085 
O       -1.187979    0.850156   -0.054570 
C        0.038633   -1.139781    0.115057 
C        1.128201   -0.485539    0.028548 
C       -1.242207   -0.388158    0.029302 
H        0.374645    1.211617   -0.001122 
H       -0.009486   -2.112699    0.054447 
H        2.271818   -0.862029   -0.174106 
H       -2.117493   -0.852266   -0.181798 
9 
9.000000 
O        1.211632    0.825202   -0.056081 
O       -1.187976    0.850226   -0.054576 
C        0.038767   -1.139839    0.115153 
C        1.128129   -0.485494    0.028611 
C       -1.241942   -0.388071    0.029238 
H        0.374607    1.212531   -0.001730 
H       -0.009956   -2.113287    0.053443 
H        2.272331   -0.863289   -0.174233 
H       -2.118860   -0.853027   -0.181171 
9 
10.000000 
O        1.211470    0.825182   -0.056077 
O       -1.187975    0.850299   -0.054583 
C        0.038899   -1.139895    0.115249 
C        1.128061   -0.485449    0.028674 
C       -1.241672   -0.387987    0.029176 
H        0.374541    1.213456   -0.002339 
H       -0.010427   -2.113910    0.052441 
H        2.272819   -0.864548   -0.174355 
H       -2.120249   -0.853798   -0.180546 
9 
11.000000 
O        1.211311    0.825162   -0.056073 
O       -1.187975    0.850374   -0.054592 
C        0.039027   -1.139950    0.115345 
C        1.127998   -0.485405    0.028736 
C       -1.241398   -0.387904    0.029115 
H        0.374449    1.214393   -0.002948 
H       -0.010898   -2.114569    0.051442 
H        2.273282   -0.865805   -0.174470 
H       -2.121658   -0.854577   -0.179927 
9 
12.000000 
O        1.211153    0.825144   -0.056068 
O       -1.187978    0.850452   -0.054602 
C        0.039154   -1.140004    0.115442 
C        1.127938   -0.485362    0.028798 
C       -1.241120   -0.387824    0.029055 
H        0.374332    1.215340   -0.003558 
H       -0.011369   -2.115264    0.050447 
H        2.273718   -0.867060   -0.174580 
H       -2.123087   -0.855364   -0.179318 
9 
13.000000 
O        1.210997    0.825128   -0.056063 
O       -1.187983    0.850531   -0.054612 
C        0.039279   -1.140056    0.115539 
C        1.127881   -0.485320    0.028858 
C       -1.240837   -0.387745    0.028996 
H        0.374191    1.216299   -0.004168 
H       -0.011840   -2.115994    0.049455 
H        2.274129   -0.868313   -0.174686 
H       -2.124535   -0.856157   -0.178721 
9 
14.000000 
O        1.210843    0.825113   -0.056058 
O       -1.187990    0.850612   -0.054621 
C        0.039402   -1.140107    0.115637 
C        1.127828   -0.485281    0.028918 
C       -1.240550   -0.387669    0.028938 
H        0.374028    1.217270   -0.004777 
H       -0.012311   -2.116759    0.048466 
H        2.274514   -0.869563   -0.174788 
H       -2.125999   -0.856957   -0.178141 
9 
15.000000 
O        1.210690    0.825100   -0.056053 
O       -1.188001    0.850695   -0.054631 
C        0.039525   -1.140157    0.115735 
C        1.127779   -0.485243    0.028977 
C       -1.240259   -0.387594    0.028880 
H        0.373844    1.218252   -0.005385 
H       -0.012782   -2.117560    0.047482 
H        2.274871   -0.870812   -0.174887 
H       -2.127479   -0.857762   -0.177580 
9 
16.000000 
O        1.210539    0.825089   -0.056049 
O       -1.188015    0.850780   -0.054639 
C        0.039646   -1.140205    0.115834 
C        1.127732   -0.485208    0.029035 
C       -1.239963   -0.387522    0.028823 
H        0.373639    1.219245   -0.005991 
H       -0.013254   -2.118396    0.046501 
H        2.275202   -0.872059   -0.174983 
H       -2.128974   -0.858573   -0.177040 
9 
17.000000 
O        1.210390    0.825081   -0.056044 
O       -1.188031    0.850867   -0.054646 
C        0.039768   -1.140252    0.115934 
C        1.127689   -0.485175    0.029092 
C       -1.239664   -0.387451    0.028765 
H        0.373415    1.220250   -0.006596 
H       -0.013725   -2.119267    0.045525 
H        2.275506   -0.873304   -0.175078 
H       -2.130482   -0.859389   -0.176524 
9 
18.000000 
O        1.210242    0.825074   -0.056039 
O       -1.188050    0.850955   -0.054652 
C        0.039888   -1.140298    0.116036 
C        1.127650   -0.485145    0.029149 
C       -1.239361   -0.387382    0.028707 
H        0.373171    1.221265   -0.007198 
H       -0.014198   -2.120171    0.044552 
H        2.275782   -0.874546   -0.175169 
H       -2.132002   -0.860211   -0.176031 
9 
19.000000 
O        1.210096    0.825070   -0.056034 
O       -1.188071    0.851046   -0.054657 
C        0.040008   -1.140342    0.116138 
C        1.127614   -0.485117    0.029204 
C       -1.239055   -0.387315    0.028649 
H        0.372908    1.222292   -0.007799 
H       -0.014671   -2.121110    0.043584 
H        2.276031   -0.875786   -0.175259 
H       -2.133535   -0.861039   -0.175562 
9 
20.000000 
O        1.209951    0.825067   -0.056029 
O       -1.188095    0.851138   -0.054661 
C        0.040126   -1.140385    0.116242 
C        1.127581   -0.485090    0.029259 
C       -1.238746   -0.387250    0.028591 
H        0.372624    1.223329   -0.008398 
H       -0.015144   -2.122082    0.042618 
H        2.276254   -0.877024   -0.175345 
H       -2.135078   -0.861873   -0.175116 
