2 
80.000000 
H       -0.373948    0.000000    0.000000 
H        0.373948    0.000000    0.000000 
2 
85.000000 
H       -0.370403    0.000000    0.000000 
H        0.370403    0.000000    0.000000 
2 
90.000000 
H       -0.366598    0.000000    0.000000 
H        0.366598    0.000000    0.000000 
2 
95.000000 
H       -0.362536    0.000000    0.000000 
H        0.362536    0.000000    0.000000 
2 
100.000000 
H       -0.358220    0.000000    0.000000 
H        0.358220    0.000000    0.000000 
2 
105.000000 
H       -0.353655    0.000000    0.000000 
H        0.353655    0.000000    0.000000 
2 
110.000000 
H       -0.348847    0.000000    0.000000 
H        0.348847    0.000000    0.000000 
2 
115.000000 
H       -0.343802    0.000000    0.000000 
H        0.343802    0.000000    0.000000 
2 
120.000000 
H       -0.338529    0.000000    0.000000 
H        0.338529    0.000000    0.000000 
2 
125.000000 
H       -0.333036    0.000000    0.000000 
H        0.333036    0.000000    0.000000 
2 
130.000000 
H       -0.327334    0.000000    0.000000 
H        0.327334    0.000000    0.000000 
2 
135.000000 
H       -0.321435    0.000000    0.000000 
H        0.321435    0.000000    0.000000 
2 
140.000000 
H       -0.315349    0.000000    0.000000 
H        0.315349    0.000000    0.000000 
2 
145.000000 
H       -0.309092    0.000000    0.000000 
H        0.309092    0.000000    0.000000 
2 
150.000000 
H       -0.302678    0.000000    0.000000 
H        0.302678    0.000000    0.000000 
2 
155.000000 
H       -0.296121    0.000000    0.000000 
H        0.296121    0.000000    0.000000 
2 
160.000000 
H       -0.289439    0.000000    0.000000 
H        0.289439    0.000000    0.000000 
2 
165.000000 
H       -0.282649    0.000000    0.000000 
H        0.282649    0.000000    0.000000 
