9 
0.000000 
O        1.213177    0.825391   -0.056105 
O       -1.188011    0.849681   -0.054565 
C        0.037434   -1.139270    0.114267 
C        1.128931   -0.485883    0.028010 
C       -1.244221   -0.388942    0.029857 
H        0.373931    1.204682    0.003698 
H       -0.005764   -2.109293    0.062565 
H        2.266851   -0.851894   -0.172796 
H       -2.107409   -0.846621   -0.186634 
9 
1.000000 
O        1.212997    0.825370   -0.056103 
O       -1.188008    0.849731   -0.054566 
C        0.037594   -1.139340    0.114371 
C        1.128825   -0.485842    0.028080 
C       -1.243975   -0.388835    0.029787 
H        0.374113    1.205513    0.003099 
H       -0.006221   -2.109591    0.061542 
H        2.267554   -0.853164   -0.172993 
H       -2.108581   -0.847276   -0.186072 
9 
2.000000 
O        1.212819    0.825350   -0.056100 
O       -1.188006    0.849783   -0.054566 
C        0.037753   -1.139407    0.114475 
C        1.128722   -0.485802    0.028149 
C       -1.243730   -0.388730    0.029717 
H        0.374276    1.206355    0.002502 
H       -0.006683   -2.109927    0.060520 
H        2.268231   -0.854434   -0.173184 
H       -2.109770   -0.847946   -0.185528 
9 
3.000000 
O        1.212643    0.825331   -0.056098 
O       -1.188003    0.849837   -0.054566 
C        0.037913   -1.139473    0.114581 
C        1.128623   -0.485763    0.028217 
C       -1.243486   -0.388627    0.029648 
H        0.374421    1.207207    0.001909 
H       -0.007150   -2.110301    0.059499 
H        2.268884   -0.855703   -0.173369 
H       -2.110976   -0.848630   -0.185000 
9 
4.000000 
O        1.212468    0.825314   -0.056096 
O       -1.188000    0.849893   -0.054567 
C        0.038072   -1.139536    0.114687 
C        1.128526   -0.485726    0.028285 
C       -1.243242   -0.388524    0.029580 
H        0.374550    1.208070    0.001319 
H       -0.007621   -2.110712    0.058479 
H        2.269511   -0.856972   -0.173548 
H       -2.112200   -0.849328   -0.184486 
9 
5.000000 
O        1.212296    0.825298   -0.056094 
O       -1.187997    0.849950   -0.054568 
C        0.038231   -1.139597    0.114794 
C        1.128433   -0.485692    0.028351 
C       -1.242997   -0.388423    0.029513 
H        0.374663    1.208944    0.000731 
H       -0.008096   -2.111161    0.057458 
H        2.270113   -0.858240   -0.173719 
H       -2.113443   -0.850037   -0.183984 
9 
6.000000 
O        1.212125    0.825285   -0.056093 
O       -1.187994    0.850009   -0.054570 
C        0.038390   -1.139657    0.114901 
C        1.128343   -0.485659    0.028417 
C       -1.242752   -0.388323    0.029448 
H        0.374758    1.209829    0.000146 
H       -0.008574   -2.111646    0.056438 
H        2.270691   -0.859507   -0.173882 
H       -2.114704   -0.850756   -0.183491 
9 
7.000000 
O        1.211957    0.825272   -0.056091 
O       -1.187992    0.850069   -0.054574 
C        0.038548   -1.139714    0.115009 
C        1.128256   -0.485629    0.028482 
C       -1.242507   -0.388223    0.029384 
H        0.374836    1.210725   -0.000436 
H       -0.009056   -2.112169    0.055417 
H        2.271243   -0.860772   -0.174035 
H       -2.115986   -0.851486   -0.183004 
9 
8.000000 
O        1.211790    0.825262   -0.056090 
O       -1.187991    0.850131   -0.054579 
C        0.038705   -1.139770    0.115117 
C        1.128172   -0.485600    0.028547 
C       -1.242259   -0.388126    0.029322 
H        0.374894    1.211633   -0.001015 
H       -0.009539   -2.112728    0.054396 
H        2.271770   -0.862036   -0.174179 
H       -2.117287   -0.852224   -0.182521 
9 
9.000000 
O        1.211625    0.825252   -0.056089 
O       -1.187990    0.850195   -0.054585 
C        0.038861   -1.139824    0.115225 
C        1.128092   -0.485573    0.028610 
C       -1.242009   -0.388029    0.029263 
H        0.374931    1.212551   -0.001592 
H       -0.010025   -2.113323    0.053375 
H        2.272273   -0.863298   -0.174313 
H       -2.118610   -0.852970   -0.182040 
9 
10.000000 
O        1.211462    0.825244   -0.056088 
O       -1.187991    0.850260   -0.054592 
C        0.039016   -1.139877    0.115333 
C        1.128015   -0.485547    0.028674 
C       -1.241756   -0.387935    0.029205 
H        0.374945    1.213481   -0.002166 
H       -0.010512   -2.113953    0.052353 
H        2.272752   -0.864558   -0.174436 
H       -2.119953   -0.853725   -0.181559 
9 
11.000000 
O        1.211301    0.825237   -0.056088 
O       -1.187993    0.850327   -0.054600 
C        0.039167   -1.139929    0.115440 
C        1.127943   -0.485522    0.028736 
C       -1.241500   -0.387842    0.029148 
H        0.374934    1.214422   -0.002738 
H       -0.010999   -2.114619    0.051330 
H        2.273206   -0.865816   -0.174549 
H       -2.121318   -0.854487   -0.181077 
9 
12.000000 
O        1.211142    0.825231   -0.056088 
O       -1.187996    0.850397   -0.054609 
C        0.039316   -1.139979    0.115547 
C        1.127874   -0.485497    0.028797 
C       -1.241240   -0.387752    0.029092 
H        0.374895    1.215374   -0.003307 
H       -0.011486   -2.115320    0.050308 
H        2.273636   -0.867071   -0.174651 
H       -2.122704   -0.855256   -0.180592 
9 
13.000000 
O        1.210985    0.825225   -0.056088 
O       -1.188001    0.850469   -0.054618 
C        0.039462   -1.140028    0.115653 
C        1.127809   -0.485473    0.028858 
C       -1.240975   -0.387664    0.029037 
H        0.374828    1.216338   -0.003873 
H       -0.011973   -2.116054    0.049285 
H        2.274042   -0.868323   -0.174742 
H       -2.124111   -0.856033   -0.180103 
9 
14.000000 
O        1.210830    0.825220   -0.056089 
O       -1.188007    0.850544   -0.054626 
C        0.039604   -1.140076    0.115759 
C        1.127749   -0.485449    0.028918 
C       -1.240704   -0.387580    0.028982 
H        0.374731    1.217313   -0.004436 
H       -0.012457   -2.116823    0.048263 
H        2.274424   -0.869573   -0.174823 
H       -2.125540   -0.856817   -0.179610 
9 
15.000000 
O        1.210677    0.825214   -0.056090 
O       -1.188015    0.850622   -0.054633 
C        0.039742   -1.140123    0.115863 
C        1.127694   -0.485424    0.028977 
C       -1.240429   -0.387498    0.028928 
H        0.374602    1.218300   -0.004996 
H       -0.012941   -2.117625    0.047242 
H        2.274782   -0.870819   -0.174893 
H       -2.126989   -0.857609   -0.179111 
9 
16.000000 
O        1.210526    0.825209   -0.056092 
O       -1.188025    0.850703   -0.054640 
C        0.039876   -1.140170    0.115967 
C        1.127642   -0.485399    0.029035 
C       -1.240148   -0.387420    0.028872 
H        0.374441    1.219297   -0.005554 
H       -0.013422   -2.118460    0.046221 
H        2.275116   -0.872063   -0.174954 
H       -2.128459   -0.858408   -0.178606 
9 
17.000000 
O        1.210376    0.825205   -0.056094 
O       -1.188036    0.850786   -0.054645 
C        0.040006   -1.140215    0.116069 
C        1.127596   -0.485374    0.029092 
C       -1.239863   -0.387345    0.028816 
H        0.374250    1.220306   -0.006109 
H       -0.013902   -2.119327    0.045202 
H        2.275426   -0.873303   -0.175004 
H       -2.129948   -0.859214   -0.178094 
9 
18.000000 
O        1.210229    0.825200   -0.056097 
O       -1.188048    0.850873   -0.054649 
C        0.040133   -1.140260    0.116169 
C        1.127554   -0.485348    0.029149 
C       -1.239572   -0.387273    0.028760 
H        0.374027    1.221325   -0.006661 
H       -0.014380   -2.120227    0.044184 
H        2.275713   -0.874540   -0.175043 
H       -2.131457   -0.860028   -0.177573 
9 
19.000000 
O        1.210083    0.825196   -0.056100 
O       -1.188062    0.850962   -0.054652 
C        0.040255   -1.140304    0.116269 
C        1.127517   -0.485322    0.029204 
C       -1.239277   -0.387204    0.028702 
H        0.373776    1.222354   -0.007212 
H       -0.014857   -2.121158    0.043168 
H        2.275974   -0.875773   -0.175073 
H       -2.132984   -0.860849   -0.177043 
9 
20.000000 
O        1.209940    0.825192   -0.056104 
O       -1.188078    0.851054   -0.054653 
C        0.040374   -1.140347    0.116367 
C        1.127484   -0.485296    0.029259 
C       -1.238978   -0.387139    0.028644 
H        0.373497    1.223394   -0.007761 
H       -0.015334   -2.122121    0.042153 
H        2.276212   -0.877004   -0.175092 
H       -2.134529   -0.861676   -0.176503 
